Version 4
SHEET 1 1748 680
WIRE -16 -544 -80 -544
WIRE 1072 -544 944 -544
WIRE 656 -512 592 -512
WIRE 832 -512 752 -512
WIRE 992 -480 944 -480
WIRE -16 -464 -16 -544
WIRE 320 -384 288 -384
WIRE 432 -384 416 -384
WIRE 592 -384 592 -512
WIRE 640 -384 592 -384
WIRE 640 -352 544 -352
WIRE 816 -352 752 -352
WIRE 992 -352 992 -480
WIRE 992 -352 928 -352
WIRE 1056 -352 992 -352
WIRE 1216 -352 1168 -352
WIRE 1280 -352 1216 -352
WIRE -16 -336 -16 -384
WIRE 432 -320 400 -320
WIRE 640 -320 592 -320
WIRE 1216 -240 1216 -352
WIRE 1216 -240 1040 -240
WIRE -16 -224 -16 -256
WIRE 592 -208 592 -320
WIRE 688 -208 592 -208
WIRE 928 -208 784 -208
WIRE 1104 -176 1040 -176
WIRE -16 -112 -16 -160
WIRE -48 96 -96 96
WIRE 96 96 48 96
WIRE 320 96 272 96
WIRE 464 96 416 96
WIRE 608 96 560 96
WIRE 880 96 832 96
WIRE 1040 128 992 128
WIRE -96 160 -96 96
WIRE 48 160 48 96
WIRE 272 160 272 96
WIRE 416 160 416 96
WIRE 560 160 560 96
WIRE 880 160 832 160
WIRE 880 240 832 240
WIRE 1040 272 992 272
WIRE -96 288 -96 240
WIRE 48 288 48 240
WIRE 272 288 272 240
WIRE 416 288 416 240
WIRE 560 288 560 240
WIRE 880 304 832 304
WIRE 1072 368 1040 368
WIRE 880 400 832 400
WIRE 1232 400 1184 400
WIRE 1072 432 992 432
WIRE 880 464 832 464
FLAG -96 288 0
FLAG 48 288 0
FLAG 272 288 0
FLAG 416 288 0
FLAG 560 288 0
FLAG -48 96 1
IOPIN -48 96 Out
FLAG 96 96 V
IOPIN 96 96 Out
FLAG 320 96 R
IOPIN 320 96 Out
FLAG 464 96 L
IOPIN 464 96 Out
FLAG 608 96 C
IOPIN 608 96 Out
FLAG 832 96 1
IOPIN 832 96 In
FLAG 832 160 L
IOPIN 832 160 In
FLAG 1040 128 1/L
IOPIN 1040 128 Out
FLAG 832 240 R
IOPIN 832 240 In
FLAG 832 304 L
IOPIN 832 304 In
FLAG 1040 272 R/L
IOPIN 1040 272 Out
FLAG 1040 368 1
IOPIN 1040 368 In
FLAG 832 400 L
IOPIN 832 400 In
FLAG 1232 400 1/LC
IOPIN 1232 400 Out
FLAG 832 464 C
IOPIN 832 464 In
FLAG -16 -112 0
FLAG -80 -544 V
IOPIN -80 -544 In
FLAG 1072 -544 R/L
IOPIN 1072 -544 In
FLAG 288 -384 V
IOPIN 288 -384 In
FLAG 400 -320 1/L
IOPIN 400 -320 In
FLAG 1104 -176 1/LC
IOPIN 1104 -176 In
FLAG 1280 -352 IR1
IOPIN 1280 -352 Out
SYMBOL voltage -96 144 R0
WINDOW 123 0 0 Left 0
WINDOW 39 0 0 Left 0
SYMATTR InstName V1
SYMATTR Value 1
SYMBOL voltage 48 144 R0
WINDOW 3 -64 176 Left 1
WINDOW 123 0 0 Left 0
WINDOW 39 0 0 Left 0
SYMATTR InstName V2
SYMATTR Value PULSE(-10 10 0 1e-6 1e-6 10m 20m)
SYMBOL voltage 272 144 R0
WINDOW 123 0 0 Left 0
WINDOW 39 0 0 Left 0
SYMATTR InstName V3
SYMATTR Value 10
SYMBOL voltage 416 144 R0
WINDOW 123 0 0 Left 0
WINDOW 39 0 0 Left 0
SYMATTR InstName V4
SYMATTR Value 1E-2
SYMBOL voltage 560 144 R0
WINDOW 123 0 0 Left 0
WINDOW 39 0 0 Left 0
SYMATTR InstName V5
SYMATTR Value 1E-6
SYMBOL MyComponents\\Divider5 928 128 R0
SYMATTR InstName X1
SYMBOL MyComponents\\Divider5 928 272 R0
SYMATTR InstName X2
SYMBOL MyComponents\\Divider5 1120 400 R0
SYMATTR InstName X3
SYMBOL MyComponents\\Multiplier5 928 432 R0
SYMATTR InstName X4
SYMBOL cap -32 -224 R0
SYMATTR InstName C1
SYMATTR Value 1e-6
SYMBOL res -32 -480 R0
SYMATTR InstName R1
SYMATTR Value 10
SYMBOL ind -32 -352 R0
SYMATTR InstName L1
SYMATTR Value 1e-2
SYMBOL MyComponents\\Differentiator5 368 -384 R0
SYMATTR InstName X5
SYMBOL MyComponents\\Multiplier5 480 -352 R0
SYMATTR InstName X6
SYMBOL MyComponents\\3Summer5 688 -352 R0
SYMATTR InstName X7
SYMBOL MyComponents\\Inverter5 704 -512 R180
SYMATTR InstName X8
SYMBOL MyComponents\\Inverter5 736 -208 R180
SYMATTR InstName X9
SYMBOL MyComponents\\Multiplier5 896 -512 R180
SYMATTR InstName X10
SYMBOL MyComponents\\Multiplier5 992 -208 R180
SYMATTR InstName X11
SYMBOL MyComponents\\Integrator5 864 -352 R0
SYMATTR InstName X12
SYMBOL MyComponents\\Integrator5 1104 -352 R0
SYMATTR InstName X13
TEXT -18 376 Left 2 !.tran 60m
TEXT 488 24 Left 1 ;CONTROL PANEL
LINE Normal 1344 0 -160 0
